5
0 1 CH4
C                     0.000000005302    -0.000000121983     0.000000000000
H                     0.488451687582     0.378219874443     0.873650152172
H                     0.488451687582     0.378219874443    -0.873650152136
H                    -1.023332739123     0.312554024079     0.000000000000
H                     0.046429300832    -1.068992320531     0.000000000000
