8
0 1 C4H4
C                     1.021486456102     0.000000000000     0.000000000000
C                     0.000000000000    -1.021486456102     0.000000000000
C                     0.000000000000     1.021486456102     0.000000000000
C                    -1.021486456102     0.000000000000     0.000000000000
H                     2.098086228943     0.000000000000     0.000000000000
H                     0.000000000000    -2.098086228943     0.000000000000
H                     0.000000000000     2.098086228943     0.000000000000
H                    -2.098086228943     0.000000000000     0.000000000000
